@<TRIPOS>MOLECULE
FU7
 53 56 0 0 0
SMALL
GASTEIGER

@<TRIPOS>ATOM
      1 C1         13.7980   -1.0690   51.6670 C.ar  1  FU7      0.0611
      2 F1         17.6490   -7.7760   54.3260 F     1  FU7     -0.2043
      3 N1         16.3200   -4.7780   51.5020 N.ar  1  FU7     -0.2757
      4 O1         15.1890   -6.4590   52.6080 O.2   1  FU7     -0.2492
      5 CL1        12.8200   -0.7640   49.0780 Cl    1  FU7     -0.0827
      6 C2         13.5680   -1.1720   53.0990 C.ar  1  FU7      0.1325
      7 F2         19.3610   -8.2000   53.0490 F     1  FU7     -0.2043
      8 N2         17.6520   -1.7480   49.9190 N.ar  1  FU7     -0.2131
      9 O2         14.7180   -1.2760   53.8670 O.3   1  FU7     -0.4894
     10 CL2         9.5430   -1.0160   53.3530 Cl    1  FU7     -0.0834
     11 C3         12.2350   -1.1500   53.6100 C.ar  1  FU7     -0.0009
     12 N3         15.7850   -0.2460   50.4390 N.ar  1  FU7     -0.2138
     13 C4         11.1440   -1.0160   52.7260 C.ar  1  FU7      0.0458
     14 N4         17.6880    0.5230   49.2410 N.pl3 1  FU7     -0.3274
     15 C5         11.3450   -0.8830   51.3330 C.ar  1  FU7     -0.0242
     16 N5         17.2390   -6.9460   51.6660 N.am  1  FU7     -0.2912
     17 C6         12.6590   -0.8990   50.8040 C.ar  1  FU7      0.0550
     18 N6         16.9330   -2.3940   55.2400 N.ar  1  FU7     -0.2682
     19 C7         15.7320   -2.5560   51.1490 C.ar  1  FU7      0.0447
     20 N7         16.7850   -3.6990   55.5360 N.ar  1  FU7     -0.1796
     21 C8         15.2560   -3.8190   51.7680 C.ar  1  FU7      0.0252
     22 C9         17.4340   -4.1620   50.7390 C.ar  1  FU7      0.0400
     23 C10        16.9730   -2.7310   50.5580 C.ar  1  FU7      0.0946
     24 C11        17.0290   -0.5120   49.8800 C.ar  1  FU7      0.2137
     25 C12        15.1460   -1.2730   51.0700 C.ar  1  FU7      0.01
     26 C13        16.1870   -6.0880   51.9660 C.2   1  FU7      0.3187
     27 C14        14.6380   -1.3760   55.2950 C.3   1  FU7      0.1090
     28 C15        16.0590   -1.4160   55.8500 C.3   1  FU7      0.0756
     29 C16        17.9490   -2.1400   54.3610 C.ar  1  FU7      0.0256
     30 C17        18.4970   -3.3580   54.0640 C.ar  1  FU7     -0.0242
     31 C18        17.7430   -4.2820   54.8130 C.ar  1  FU7      0.0494
     32 C19        17.2240   -8.3480   52.0910 C.3   1  FU7      0.0764
     33 C20        18.0880   -8.5660   53.3150 C.3   1  FU7      0.2613
     34 C21        18.0770  -10.0030   53.7890 C.3   1  FU7      0.0004
     35 H          12.0698   -1.2321   54.6254 H       1  FU7        0.0669
     36 H          18.5711    0.3677   48.8344 H       1  FU7        0.1452
     37 H          17.2739    1.4149   49.1928 H       1  FU7        0.1452
     38 H          10.5354   -0.7744   50.7023 H       1  FU7        0.0647
     39 H          18.0098   -6.6045   51.1576 H       1  FU7        0.1507
     40 H          14.3707   -3.9810   52.2730 H       1  FU7        0.0821
     41 H          18.3086   -4.6013   50.4119 H       1  FU7        0.0836
     42 H          14.1175   -2.2704   55.5670 H       1  FU7        0.0715
     43 H          14.1081   -0.5371   55.6954 H       1  FU7        0.0715
     44 H          16.4959   -0.4493   55.7103 H       1  FU7        0.0542
     45 H          15.9677   -1.7004   56.8775 H       1  FU7        0.0542
     46 H          18.2419   -1.2199   53.9969 H       1  FU7        0.0826
     47 H          19.2878   -3.5558   53.4312 H       1  FU7        0.0648
     48 H          17.9130   -5.2999   54.8037 H       1  FU7        0.0848
     49 H          17.5924   -8.9574   51.2924 H       1  FU7        0.0521
     50 H          16.2174   -8.6129   52.3391 H       1  FU7        0.0521
     51 H          18.4212  -10.6408   53.0019 H       1  FU7        0.0287
     52 H          17.0806  -10.2806   54.0630 H       1  FU7        0.0287
     53 H          18.7214  -10.1037   54.6373 H       1  FU7        0.0287
@<TRIPOS>BOND
     1     5    17    1
     2    14    24    1
     3    24     8   ar
     4    24    12   ar
     5     8    23   ar
     6    12    25   ar
     7    23    22   ar
     8    23    19   ar
     9    22     3   ar
    10    17    15   ar
    11    17     1   ar
    12    25    19   ar
    13    25     1    1
    14    19    21   ar
    15    15    13   ar
    16     3    21   ar
    17     3    26   am
    18    16    26   am
    19    16    32    1
    20     1     6   ar
    21    26     4    2
    22    32    33    1
    23    13    10    1
    24    13    11   ar
    25     7    33    1
    26     6    11   ar
    27     6     9    1
    28    33    34    1
    29    33     2    1
    30     9    27    1
    31    30    29   ar
    32    30    31   ar
    33    29    18   ar
    34    31    20   ar
    35    18    20   ar
    36    18    28    1
    37    27    28    1
    38    11    35    1
    39    14    36    1
    40    14    37    1
    41    15    38    1
    42    16    39    1
    43    21    40    1
    44    22    41    1
    45    27    42    1
    46    27    43    1
    47    28    44    1
    48    28    45    1
    49    29    46    1
    50    30    47    1
    51    31    48    1
    52    32    49    1
    53    32    50    1
    54    34    51    1
    55    34    52    1
    56    34    53    1
