@<TRIPOS>MOLECULE
FXV
59 61 1                 
SMALL
USER_CHARGES
@<TRIPOS>ATOM
1	  C1	6.643	0.247	17.881	C.2	1	FXV	0.000	
2	  N1	8.694	-0.928	17.134	N.2	1	FXV	0.000	
3	  O1	9.287	-1.789	16.260	O.3	1	FXV	0.000	
4	  C2	7.375	0.876	18.942	C.2	1	FXV	0.000	
5	  C3	8.780	0.574	19.064	C.2	1	FXV	0.000	
6	  C4	9.406	-0.331	18.145	C.2	1	FXV	0.000	
7	  C6	7.337	-0.642	17.007	C.2	1	FXV	0.000	
8	  C7	6.740	3.933	21.257	C.2	1	FXV	0.000	
9	  C8	5.363	3.697	21.685	C.2	1	FXV	0.000	
10	  C9	4.693	2.519	21.194	C.2	1	FXV	0.000	
11	 C10	5.345	1.604	20.314	C.2	1	FXV	0.000	
12	 C11	6.695	1.825	19.882	C.2	1	FXV	0.000	
13	 C12	7.370	2.997	20.370	C.2	1	FXV	0.000	
14	 C13	4.622	4.593	22.566	C.2	1	FXV	0.000	
15	 N14	5.099	5.852	22.616	N.pl3	1	FXV	0.000	
16	 C15	4.484	6.899	23.392	C.3	1	FXV	0.000	
17	 C16	3.806	7.874	22.405	C.3	1	FXV	0.000	
18	 C17	5.589	7.556	24.301	C.3	1	FXV	0.000	
19	 C18	4.964	8.689	25.136	C.2	1	FXV	0.000	
20	 O19	3.860	8.264	25.808	O.3	1	FXV	0.000	
21	 C20	6.861	8.077	23.491	C.3	1	FXV	0.000	
22	 C23	8.484	7.469	25.477	C.2	1	FXV	0.000	
23	 C24	9.717	7.699	26.228	C.2	1	FXV	0.000	
24	 C25	10.609	8.759	25.789	C.2	1	FXV	0.000	
25	 C26	10.287	9.557	24.645	C.2	1	FXV	0.000	
26	 C27	9.069	9.322	23.913	C.2	1	FXV	0.000	
27	 C28	8.148	8.281	24.306	C.2	1	FXV	0.000	
28	 C29	10.058	6.889	27.400	C.2	1	FXV	0.000	
29	 N30	11.321	6.749	27.813	N.2	1	FXV	0.000	
30	 N31	9.074	6.275	28.081	N.2	1	FXV	0.000	
31	 O32	5.390	9.791	25.172	O.co2	1	FXV	0.000	
32	 O33	3.616	4.231	23.205	O.2	1	FXV	0.000	
33	 C34	3.095	9.132	26.648	C.3	1	FXV	0.000	
34	 H01	5.580	0.444	17.745	 H	1	FXV	0.000	
35	 H02	9.355	-1.373	15.397	 H	1	FXV	0.000	
36	 H03	9.368	1.035	19.858	 H	1	FXV	0.000	
37	 H04	10.469	-0.550	18.251	 H	1	FXV	0.000	
38	 H05	6.779	-1.120	16.202	 H	1	FXV	0.000	
39	 H06	7.283	4.811	21.608	 H	1	FXV	0.000	
40	 H07	3.666	2.323	21.502	 H	1	FXV	0.000	
41	 H08	4.808	0.722	19.964	 H	1	FXV	0.000	
42	 H09	8.397	3.181	20.055	 H	1	FXV	0.000	
43	 H10	5.928	6.073	22.083	 H	1	FXV	0.000	
44	 H11	3.709	6.537	24.067	 H	1	FXV	0.000	
45	 H12	2.893	8.267	22.853	 H	1	FXV	0.000	
46	 H13	4.485	8.697	22.183	 H	1	FXV	0.000	
47	 H14	3.560	7.346	21.483	 H	1	FXV	0.000	
48	 H15	5.966	6.773	24.960	 H	1	FXV	0.000	
49	 H16	6.588	9.067	23.125	 H	1	FXV	0.000	
50	 H17	7.075	7.352	22.705	 H	1	FXV	0.000	
51	 H18	7.803	6.679	25.794	 H	1	FXV	0.000	
52	 H19	11.532	8.948	26.336	 H	1	FXV	0.000	
53	 H20	10.967	10.347	24.326	 H	1	FXV	0.000	
54	 H21	8.838	9.941	23.046	 H	1	FXV	0.000	
55	 H22	12.070	7.206	27.312	 H	1	FXV	0.000	
56	 H23	9.294	5.715	28.892	 H	1	FXV	0.000	
57	 H24	2.116	8.689	26.832	 H	1	FXV	0.000	
58	 H25	3.614	9.271	27.596	 H	1	FXV	0.000	
59	 H26	2.970	10.097	26.156	 H	1	FXV	0.000	
@<TRIPOS>BOND
1 1 4 ar
2 1 7 ar
3 1 34 1
4 2 3 1
5 2 6 ar
6 2 7 ar
7 3 35 1
8 4 5 ar
9 4 12 1
10 5 6 ar
11 5 36 1
12 6 37 1
13 7 38 1
14 8 9 ar
15 8 13 ar
16 8 39 1
17 9 10 ar
18 9 14 1
19 10 11 ar
20 10 40 1
21 11 12 ar
22 11 41 1
23 12 13 ar
24 13 42 1
25 14 15 1
26 14 32 2
27 15 16 1
28 15 43 1
29 16 17 1
30 16 18 1
31 16 44 1
32 17 45 1
33 17 46 1
34 17 47 1
35 18 19 1
36 18 21 1
37 18 48 1
38 19 20 1
39 19 31 2
40 20 33 1
41 21 27 1
42 21 49 1
43 21 50 1
44 22 23 ar
45 22 27 ar
46 22 51 1
47 23 24 ar
48 23 28 1
49 24 25 ar
50 24 52 1
51 25 26 ar
52 25 53 1
53 26 27 ar
54 26 54 1
55 28 29 ar
56 28 30 ar
57 29 55 1
58 30 56 1
59 33 57 1
60 33 58 1
61 33 59 1
@<TRIPOS>SUBSTRUCTURE
1	FXV	1	GROUP	1 A	FXV
