@<TRIPOS>MOLECULE
IQK
56 59 1                 
SMALL
USER_CHARGES
@<TRIPOS>ATOM
1	  C1	-52.887	2.211	-10.086	C.3	1	IQK	0.000	
2	  N1	-46.731	0.987	-14.158	N.pl3	1	IQK	0.000	
3	  O1	-51.540	2.459	-9.676	O.3	1	IQK	0.000	
4	  S1	-46.880	0.640	-12.579	S.O2	1	IQK	0.000	
5	  C2	-50.443	2.012	-10.377	C.2	1	IQK	0.000	
6	  N2	-45.176	6.136	-15.434	N.pl3	1	IQK	0.000	
7	  O2	-49.355	8.683	-10.825	O.3	1	IQK	0.000	
8	  S2	-45.209	7.551	-14.668	S.O2	1	IQK	0.000	
9	  C3	-49.216	2.634	-10.172	C.2	1	IQK	0.000	
10	  O3	-45.174	8.562	-15.696	O.2	1	IQK	0.000	
11	  C4	-48.094	2.204	-10.870	C.2	1	IQK	0.000	
12	  O4	-43.966	7.578	-13.966	O.2	1	IQK	0.000	
13	  C5	-48.187	1.155	-11.790	C.2	1	IQK	0.000	
14	  O5	-45.716	1.182	-11.948	O.2	1	IQK	0.000	
15	  C6	-46.558	2.271	-14.564	C.2	1	IQK	0.000	
16	  O6	-46.814	-0.789	-12.543	O.2	1	IQK	0.000	
17	  C7	-45.301	2.548	-15.112	C.2	1	IQK	0.000	
18	  C8	-44.423	1.504	-15.397	C.2	1	IQK	0.000	
19	  C9	-43.186	1.732	-15.975	C.2	1	IQK	0.000	
20	 C10	-42.798	3.015	-16.266	C.2	1	IQK	0.000	
21	 C11	-43.648	4.073	-16.001	C.2	1	IQK	0.000	
22	 C12	-44.912	3.855	-15.421	C.2	1	IQK	0.000	
23	 C13	-45.767	4.932	-15.173	C.2	1	IQK	0.000	
24	 C14	-46.382	7.857	-13.605	C.2	1	IQK	0.000	
25	 C15	-47.324	8.863	-13.840	C.2	1	IQK	0.000	
26	 C16	-48.310	9.125	-12.908	C.2	1	IQK	0.000	
27	 C17	-48.355	8.387	-11.723	C.2	1	IQK	0.000	
28	 C18	-49.715	7.871	-9.701	C.3	1	IQK	0.000	
29	 C19	-47.398	7.395	-11.477	C.2	1	IQK	0.000	
30	 C20	-46.413	7.133	-12.414	C.2	1	IQK	0.000	
31	 C21	-47.013	4.681	-14.570	C.2	1	IQK	0.000	
32	 C22	-47.401	3.355	-14.257	C.2	1	IQK	0.000	
33	 C23	-49.411	0.533	-11.991	C.2	1	IQK	0.000	
34	 C24	-50.539	0.964	-11.292	C.2	1	IQK	0.000	
35	 H01	-53.503	3.079	-9.850	 H	1	IQK	0.000	
36	 H02	-52.913	2.029	-11.160	 H	1	IQK	0.000	
37	 H03	-53.273	1.338	-9.559	 H	1	IQK	0.000	
38	 H04	-46.767	0.244	-14.841	 H	1	IQK	0.000	
39	 H05	-44.609	6.138	-16.269	 H	1	IQK	0.000	
40	 H06	-49.135	3.459	-9.464	 H	1	IQK	0.000	
41	 H07	-47.133	2.689	-10.699	 H	1	IQK	0.000	
42	 H08	-44.718	0.482	-15.159	 H	1	IQK	0.000	
43	 H09	-42.523	0.896	-16.198	 H	1	IQK	0.000	
44	 H10	-41.819	3.201	-16.707	 H	1	IQK	0.000	
45	 H11	-43.335	5.088	-16.244	 H	1	IQK	0.000	
46	 H12	-47.280	9.443	-14.762	 H	1	IQK	0.000	
47	 H13	-49.049	9.904	-13.097	 H	1	IQK	0.000	
48	 H14	-50.736	7.511	-9.826	 H	1	IQK	0.000	
49	 H15	-49.037	7.021	-9.634	 H	1	IQK	0.000	
50	 H16	-49.648	8.463	-8.788	 H	1	IQK	0.000	
51	 H17	-47.429	6.828	-10.546	 H	1	IQK	0.000	
52	 H18	-45.665	6.364	-12.221	 H	1	IQK	0.000	
53	 H19	-47.683	5.510	-14.343	 H	1	IQK	0.000	
54	 H20	-48.361	3.173	-13.774	 H	1	IQK	0.000	
55	 H21	-49.491	-0.294	-12.696	 H	1	IQK	0.000	
56	 H22	-51.500	0.479	-11.462	 H	1	IQK	0.000	
@<TRIPOS>BOND
1 1 3 1
2 1 35 1
3 1 36 1
4 1 37 1
5 2 4 1
6 2 15 1
7 2 38 1
8 3 5 1
9 4 13 1
10 4 14 2
11 4 16 2
12 5 9 ar
13 5 34 ar
14 6 8 1
15 6 23 1
16 6 39 1
17 7 27 1
18 7 28 1
19 8 10 2
20 8 12 2
21 8 24 1
22 9 11 ar
23 9 40 1
24 11 13 ar
25 11 41 1
26 13 33 ar
27 15 17 ar
28 15 32 ar
29 17 18 ar
30 17 22 ar
31 18 19 ar
32 18 42 1
33 19 20 ar
34 19 43 1
35 20 21 ar
36 20 44 1
37 21 22 ar
38 21 45 1
39 22 23 ar
40 23 31 ar
41 24 25 ar
42 24 30 ar
43 25 26 ar
44 25 46 1
45 26 27 ar
46 26 47 1
47 27 29 ar
48 28 48 1
49 28 49 1
50 28 50 1
51 29 30 ar
52 29 51 1
53 30 52 1
54 31 32 ar
55 31 53 1
56 32 54 1
57 33 34 ar
58 33 55 1
59 34 56 1
@<TRIPOS>SUBSTRUCTURE
1	IQK	1	GROUP	1 A	IQK
